<?xml version="1.0" encoding="UTF-8"?>

<!-- generated on Wednesday 01 May 2019 04:38:11 PM IST by Eclipse SUMO netedit Version 1.1.0
<configuration xmlns:xsi="http://www.w3.org/2001/XMLSchema-instance" xsi:noNamespaceSchemaLocation="http://sumo.dlr.de/xsd/netconvertConfiguration.xsd">

    <input>
        <sumo-net-file value="/home/rupalibhati/Fiverr/miketaz69/intersection.net.xml"/>
    </input>

    <output>
        <output-file value="/home/rupalibhati/Fiverr/miketaz69/intersection.net.xml"/>
    </output>

    <processing>
        <geometry.max-grade.fix value="false"/>
        <offset.disable-normalization value="true"/>
        <lefthand value="false"/>
    </processing>

    <junctions>
        <no-turnarounds value="true"/>
        <junctions.corner-detail value="0"/>
        <junctions.limit-turn-speed value="-1"/>
        <rectangular-lane-cut value="false"/>
    </junctions>

    <pedestrian>
        <walkingareas value="false"/>
    </pedestrian>

</configuration>
-->

<net version="1.1" xmlns:xsi="http://www.w3.org/2001/XMLSchema-instance" xsi:noNamespaceSchemaLocation="http://sumo.dlr.de/xsd/net_file.xsd">

    <location netOffset="0.00,0.00" convBoundary="-100.24,-129.25,100.00,118.51" origBoundary="-10000000000.00,-10000000000.00,10000000000.00,10000000000.00" projParameter="!"/>

    <edge id=":gneJ00_0" function="internal">
        <lane id=":gneJ00_0_0" index="0" speed="13.89" length="16.41" shape="16.11,8.09 11.74,8.68 8.32,10.43 5.86,13.34 4.34,17.42"/>
    </edge>
    <edge id=":gneJ00_1" function="internal">
        <lane id=":gneJ00_1_0" index="0" speed="13.89" length="32.07" shape="16.11,8.09 -15.97,8.09"/>
        <lane id=":gneJ00_1_1" index="1" speed="13.89" length="32.07" shape="16.10,4.89 -15.96,4.89"/>
        <lane id=":gneJ00_1_2" index="2" speed="13.89" length="32.07" shape="16.10,1.69 -15.96,1.69"/>
    </edge>
    <edge id=":gneJ00_4" function="internal">
        <lane id=":gneJ00_4_0" index="0" speed="13.89" length="8.65" shape="16.10,1.69 8.43,0.60 7.68,0.09"/>
    </edge>
    <edge id=":gneJ00_20" function="internal">
        <lane id=":gneJ00_20_0" index="0" speed="13.89" length="18.65" shape="7.68,0.09 3.54,-2.70 1.42,-8.21 2.08,-15.93"/>
    </edge>
    <edge id=":gneJ00_5" function="internal">
        <lane id=":gneJ00_5_0" index="0" speed="13.89" length="9.07" shape="11.44,-13.76 11.22,-11.20 11.92,-9.37 13.54,-8.27 16.09,-7.91"/>
    </edge>
    <edge id=":gneJ00_6" function="internal">
        <lane id=":gneJ00_6_0" index="0" speed="13.89" length="32.01" shape="11.44,-13.76 4.34,17.42"/>
        <lane id=":gneJ00_6_1" index="1" speed="13.89" length="32.01" shape="8.32,-14.49 1.22,16.73"/>
        <lane id=":gneJ00_6_2" index="2" speed="13.89" length="32.01" shape="5.20,-15.21 -1.90,16.03"/>
    </edge>
    <edge id=":gneJ00_9" function="internal">
        <lane id=":gneJ00_9_0" index="0" speed="13.89" length="9.03" shape="5.20,-15.21 2.40,-7.81 1.68,-6.95"/>
    </edge>
    <edge id=":gneJ00_21" function="internal">
        <lane id=":gneJ00_21_0" index="0" speed="13.89" length="20.54" shape="1.68,-6.95 -2.05,-2.52 -8.17,0.64 -15.96,1.69"/>
    </edge>
    <edge id=":gneJ00_10" function="internal">
        <lane id=":gneJ00_10_0" index="0" speed="13.89" length="16.52" shape="-15.95,-7.91 -11.61,-8.50 -8.20,-10.27 -5.71,-13.23 -4.15,-17.38"/>
    </edge>
    <edge id=":gneJ00_11" function="internal">
        <lane id=":gneJ00_11_0" index="0" speed="13.89" length="32.04" shape="-15.95,-7.91 16.09,-7.91"/>
        <lane id=":gneJ00_11_1" index="1" speed="13.89" length="32.04" shape="-15.95,-4.71 16.09,-4.71"/>
        <lane id=":gneJ00_11_2" index="2" speed="13.89" length="32.04" shape="-15.95,-1.51 16.10,-1.51"/>
    </edge>
    <edge id=":gneJ00_14" function="internal">
        <lane id=":gneJ00_14_0" index="0" speed="13.89" length="8.57" shape="-15.95,-1.51 -8.35,-0.40 -7.61,0.09"/>
    </edge>
    <edge id=":gneJ00_22" function="internal">
        <lane id=":gneJ00_22_0" index="0" speed="13.89" length="18.57" shape="-7.61,0.09 -3.47,2.89 -1.32,8.37 -1.90,16.03"/>
    </edge>
    <edge id=":gneJ00_15" function="internal">
        <lane id=":gneJ00_15_0" index="0" speed="13.89" length="9.06" shape="-11.27,13.95 -11.08,11.39 -11.80,9.56 -13.42,8.46 -15.97,8.09"/>
    </edge>
    <edge id=":gneJ00_16" function="internal">
        <lane id=":gneJ00_16_0" index="0" speed="13.89" length="32.10" shape="-11.27,13.95 -4.15,-17.38"/>
        <lane id=":gneJ00_16_1" index="1" speed="13.89" length="32.10" shape="-8.15,14.64 -1.03,-16.66"/>
        <lane id=":gneJ00_16_2" index="2" speed="13.89" length="32.10" shape="-5.03,15.34 2.08,-15.93"/>
    </edge>
    <edge id=":gneJ00_19" function="internal">
        <lane id=":gneJ00_19_0" index="0" speed="13.89" length="9.11" shape="-5.03,15.34 -2.30,7.98 -1.49,7.01"/>
    </edge>
    <edge id=":gneJ00_23" function="internal">
        <lane id=":gneJ00_23_0" index="0" speed="13.89" length="20.43" shape="-1.49,7.01 2.13,2.71 8.26,-0.45 16.10,-1.51"/>
    </edge>

    <edge id="-gneE0" from="gneJ0" to="gneJ00" priority="1">
        <lane id="-gneE0_0" index="0" speed="13.89" length="105.34" shape="-34.15,116.77 -11.27,13.95"/>
        <lane id="-gneE0_1" index="1" speed="13.89" length="105.34" shape="-31.03,117.47 -8.15,14.64"/>
        <lane id="-gneE0_2" index="2" speed="13.89" length="105.34" shape="-27.90,118.16 -5.03,15.34"/>
    </edge>
    <edge id="-gneE1" from="gneJ1" to="gneJ00" priority="1">
        <lane id="-gneE1_0" index="0" speed="13.89" length="83.90" shape="100.01,8.00 16.11,8.09"/>
        <lane id="-gneE1_1" index="1" speed="13.89" length="83.90" shape="100.01,4.80 16.10,4.89"/>
        <lane id="-gneE1_2" index="2" speed="13.89" length="83.90" shape="100.00,1.60 16.10,1.69"/>
    </edge>
    <edge id="-gneE2" from="gneJ2" to="gneJ00" priority="1">
        <lane id="-gneE2_0" index="0" speed="13.89" length="116.71" shape="37.84,-127.44 11.44,-13.76"/>
        <lane id="-gneE2_1" index="1" speed="13.89" length="116.71" shape="34.73,-128.16 8.32,-14.49"/>
        <lane id="-gneE2_2" index="2" speed="13.89" length="116.71" shape="31.61,-128.89 5.20,-15.21"/>
    </edge>
    <edge id="-gneE3" from="gneJ3" to="gneJ00" priority="1">
        <lane id="-gneE3_0" index="0" speed="13.89" length="84.04" shape="-99.99,-8.00 -15.95,-7.91"/>
        <lane id="-gneE3_1" index="1" speed="13.89" length="84.04" shape="-99.99,-4.80 -15.95,-4.71"/>
        <lane id="-gneE3_2" index="2" speed="13.89" length="84.04" shape="-100.00,-1.60 -15.95,-1.51"/>
    </edge>
    <edge id="gneE0" from="gneJ00" to="gneJ0" priority="1">
        <lane id="gneE0_0" index="0" speed="13.89" length="105.34" shape="4.34,17.42 -18.53,120.25"/>
        <lane id="gneE0_1" index="1" speed="13.89" length="105.34" shape="1.22,16.73 -21.65,119.55"/>
        <lane id="gneE0_2" index="2" speed="13.89" length="105.34" shape="-1.90,16.03 -24.78,118.86"/>
    </edge>
    <edge id="gneE1" from="gneJ00" to="gneJ1" priority="1">
        <lane id="gneE1_0" index="0" speed="13.89" length="83.90" shape="16.09,-7.91 99.99,-8.00"/>
        <lane id="gneE1_1" index="1" speed="13.89" length="83.90" shape="16.09,-4.71 99.99,-4.80"/>
        <lane id="gneE1_2" index="2" speed="13.89" length="83.90" shape="16.10,-1.51 100.00,-1.60"/>
    </edge>
    <edge id="gneE2" from="gneJ00" to="gneJ2" priority="1">
        <lane id="gneE2_0" index="0" speed="13.89" length="116.71" shape="-4.15,-17.38 22.26,-131.06"/>
        <lane id="gneE2_1" index="1" speed="13.89" length="116.71" shape="-1.03,-16.66 25.37,-130.34"/>
        <lane id="gneE2_2" index="2" speed="13.89" length="116.71" shape="2.08,-15.93 28.49,-129.61"/>
    </edge>
    <edge id="gneE3" from="gneJ00" to="gneJ3" priority="1" spreadType="center" shape="-0.01,4.91 -100.24,4.79">
        <lane id="gneE3_0" index="0" speed="13.89" length="84.04" shape="-15.97,8.09 -100.01,7.99"/>
        <lane id="gneE3_1" index="1" speed="13.89" length="84.04" shape="-15.96,4.89 -100.01,4.79"/>
        <lane id="gneE3_2" index="2" speed="13.89" length="84.04" shape="-15.96,1.69 -100.00,1.59"/>
    </edge>

    <tlLogic id="gneJ00" type="static" programID="0" offset="0">
        <phase duration="42" state="GGGGgrrrrrGGGGgrrrrr"/>
        <phase duration="3"  state="yyyyyrrrrryyyyyrrrrr"/>
        <phase duration="42" state="rrrrrGGGGgrrrrrGGGGg"/>
        <phase duration="3"  state="rrrrryyyyyrrrrryyyyy"/>
    </tlLogic>
    <tlLogic id="gneJ00" type="static" programID="1" offset="0">
        <phase duration="42" state="GGGGgrrrrrGGGGgrrrrr"/>
        <phase duration="3"  state="yyyyyrrrrryyyyyrrrrr"/>
        <phase duration="42" state="rrrrrGGGGgrrrrrGGGGg"/>
        <phase duration="3"  state="rrrrryyyyyrrrrryyyyy"/>
    </tlLogic>

    <junction id="gneJ0" type="dead_end" x="-26.34" y="118.51" incLanes="gneE0_0 gneE0_1 gneE0_2" intLanes="" shape="-26.34,118.51 -16.97,120.59 -26.34,118.51"/>
    <junction id="gneJ00" type="traffic_light" x="0.00" y="0.11" incLanes="-gneE1_0 -gneE1_1 -gneE1_2 -gneE2_0 -gneE2_1 -gneE2_2 -gneE3_0 -gneE3_1 -gneE3_2 -gneE0_0 -gneE0_1 -gneE0_2" intLanes=":gneJ00_0_0 :gneJ00_1_0 :gneJ00_1_1 :gneJ00_1_2 :gneJ00_20_0 :gneJ00_5_0 :gneJ00_6_0 :gneJ00_6_1 :gneJ00_6_2 :gneJ00_21_0 :gneJ00_10_0 :gneJ00_11_0 :gneJ00_11_1 :gneJ00_11_2 :gneJ00_22_0 :gneJ00_15_0 :gneJ00_16_0 :gneJ00_16_1 :gneJ00_16_2 :gneJ00_23_0" shape="16.11,9.69 16.09,-9.51 12.99,-13.40 -5.71,-17.74 -15.95,-9.51 -15.97,9.69 -12.84,13.60 5.91,17.77">
        <request index="0"  response="00000000000000000000" foes="00000000000111000000" cont="0"/>
        <request index="1"  response="10000000001000000000" foes="11111100001111000000" cont="0"/>
        <request index="2"  response="10000000001000000000" foes="11111100001111000000" cont="0"/>
        <request index="3"  response="10000000001000000000" foes="11111100001111000000" cont="0"/>
        <request index="4"  response="10000011101000000000" foes="11110011101111000000" cont="1"/>
        <request index="5"  response="00000011100000000000" foes="00000011100000000000" cont="0"/>
        <request index="6"  response="00000111100000011111" foes="10000111100000011111" cont="0"/>
        <request index="7"  response="00000111100000011111" foes="10000111100000011111" cont="0"/>
        <request index="8"  response="00000111100000011111" foes="10000111100000011111" cont="0"/>
        <request index="9"  response="01110111100000011110" foes="01110111100000011110" cont="1"/>
        <request index="10" response="00000000000000000000" foes="01110000000000000000" cont="0"/>
        <request index="11" response="10000000001000000000" foes="11110000001111110000" cont="0"/>
        <request index="12" response="10000000001000000000" foes="11110000001111110000" cont="0"/>
        <request index="13" response="10000000001000000000" foes="11110000001111110000" cont="0"/>
        <request index="14" response="10000000001000001110" foes="11110000001111001110" cont="1"/>
        <request index="15" response="00000000000000001110" foes="00000000000000001110" cont="0"/>
        <request index="16" response="00000111110000011110" foes="00000111111000011110" cont="0"/>
        <request index="17" response="00000111110000011110" foes="00000111111000011110" cont="0"/>
        <request index="18" response="00000111110000011110" foes="00000111111000011110" cont="0"/>
        <request index="19" response="00000111100111011110" foes="00000111100111011110" cont="1"/>
    </junction>
    <junction id="gneJ1" type="dead_end" x="100.00" y="0.00" incLanes="gneE1_0 gneE1_1 gneE1_2" intLanes="" shape="100.00,0.00 99.99,-9.60 100.00,0.00"/>
    <junction id="gneJ2" type="dead_end" x="30.05" y="-129.25" incLanes="gneE2_0 gneE2_1 gneE2_2" intLanes="" shape="30.05,-129.25 20.70,-131.42 30.05,-129.25"/>
    <junction id="gneJ3" type="dead_end" x="-100.00" y="0.00" incLanes="gneE3_0 gneE3_1 gneE3_2" intLanes="" shape="-100.00,0.00 -100.01,9.59 -100.00,-0.01"/>

    <junction id=":gneJ00_20_0" type="internal" x="7.68" y="0.09" incLanes=":gneJ00_4_0 -gneE3_0 -gneE3_1 -gneE3_2" intLanes=":gneJ00_6_0 :gneJ00_6_1 :gneJ00_6_2 :gneJ00_9_0 :gneJ00_10_0 :gneJ00_11_0 :gneJ00_11_1 :gneJ00_11_2 :gneJ00_16_0 :gneJ00_16_1 :gneJ00_16_2 :gneJ00_19_0"/>
    <junction id=":gneJ00_21_0" type="internal" x="1.68" y="-6.95" incLanes=":gneJ00_9_0 -gneE0_0 -gneE0_1 -gneE0_2" intLanes=":gneJ00_1_0 :gneJ00_1_1 :gneJ00_1_2 :gneJ00_4_0 :gneJ00_11_0 :gneJ00_11_1 :gneJ00_11_2 :gneJ00_14_0 :gneJ00_15_0 :gneJ00_16_0 :gneJ00_16_1 :gneJ00_16_2"/>
    <junction id=":gneJ00_22_0" type="internal" x="-7.61" y="0.09" incLanes=":gneJ00_14_0 -gneE1_0 -gneE1_1 -gneE1_2" intLanes=":gneJ00_0_0 :gneJ00_1_0 :gneJ00_1_1 :gneJ00_1_2 :gneJ00_6_0 :gneJ00_6_1 :gneJ00_6_2 :gneJ00_9_0 :gneJ00_16_0 :gneJ00_16_1 :gneJ00_16_2 :gneJ00_19_0"/>
    <junction id=":gneJ00_23_0" type="internal" x="-1.49" y="7.01" incLanes=":gneJ00_19_0 -gneE2_0 -gneE2_1 -gneE2_2" intLanes=":gneJ00_1_0 :gneJ00_1_1 :gneJ00_1_2 :gneJ00_4_0 :gneJ00_5_0 :gneJ00_6_0 :gneJ00_6_1 :gneJ00_6_2 :gneJ00_11_0 :gneJ00_11_1 :gneJ00_11_2 :gneJ00_14_0"/>

    <connection from="-gneE0" to="gneE3" fromLane="0" toLane="0" via=":gneJ00_15_0" tl="gneJ00" linkIndex="15" dir="r" state="o"/>
    <connection from="-gneE0" to="gneE2" fromLane="0" toLane="0" via=":gneJ00_16_0" tl="gneJ00" linkIndex="16" dir="s" state="o"/>
    <connection from="-gneE0" to="gneE2" fromLane="1" toLane="1" via=":gneJ00_16_1" tl="gneJ00" linkIndex="17" dir="s" state="o"/>
    <connection from="-gneE0" to="gneE2" fromLane="2" toLane="2" via=":gneJ00_16_2" tl="gneJ00" linkIndex="18" dir="s" state="o"/>
    <connection from="-gneE0" to="gneE1" fromLane="2" toLane="2" via=":gneJ00_19_0" tl="gneJ00" linkIndex="19" dir="l" state="o"/>
    <connection from="-gneE1" to="gneE0" fromLane="0" toLane="0" via=":gneJ00_0_0" tl="gneJ00" linkIndex="0" dir="r" state="O"/>
    <connection from="-gneE1" to="gneE3" fromLane="0" toLane="0" via=":gneJ00_1_0" tl="gneJ00" linkIndex="1" dir="s" state="O"/>
    <connection from="-gneE1" to="gneE3" fromLane="1" toLane="1" via=":gneJ00_1_1" tl="gneJ00" linkIndex="2" dir="s" state="O"/>
    <connection from="-gneE1" to="gneE3" fromLane="2" toLane="2" via=":gneJ00_1_2" tl="gneJ00" linkIndex="3" dir="s" state="O"/>
    <connection from="-gneE1" to="gneE2" fromLane="2" toLane="2" via=":gneJ00_4_0" tl="gneJ00" linkIndex="4" dir="l" state="o"/>
    <connection from="-gneE2" to="gneE1" fromLane="0" toLane="0" via=":gneJ00_5_0" tl="gneJ00" linkIndex="5" dir="r" state="o"/>
    <connection from="-gneE2" to="gneE0" fromLane="0" toLane="0" via=":gneJ00_6_0" tl="gneJ00" linkIndex="6" dir="s" state="o"/>
    <connection from="-gneE2" to="gneE0" fromLane="1" toLane="1" via=":gneJ00_6_1" tl="gneJ00" linkIndex="7" dir="s" state="o"/>
    <connection from="-gneE2" to="gneE0" fromLane="2" toLane="2" via=":gneJ00_6_2" tl="gneJ00" linkIndex="8" dir="s" state="o"/>
    <connection from="-gneE2" to="gneE3" fromLane="2" toLane="2" via=":gneJ00_9_0" tl="gneJ00" linkIndex="9" dir="l" state="o"/>
    <connection from="-gneE3" to="gneE2" fromLane="0" toLane="0" via=":gneJ00_10_0" tl="gneJ00" linkIndex="10" dir="r" state="O"/>
    <connection from="-gneE3" to="gneE1" fromLane="0" toLane="0" via=":gneJ00_11_0" tl="gneJ00" linkIndex="11" dir="s" state="O"/>
    <connection from="-gneE3" to="gneE1" fromLane="1" toLane="1" via=":gneJ00_11_1" tl="gneJ00" linkIndex="12" dir="s" state="O"/>
    <connection from="-gneE3" to="gneE1" fromLane="2" toLane="2" via=":gneJ00_11_2" tl="gneJ00" linkIndex="13" dir="s" state="O"/>
    <connection from="-gneE3" to="gneE0" fromLane="2" toLane="2" via=":gneJ00_14_0" tl="gneJ00" linkIndex="14" dir="l" state="o"/>

    <connection from=":gneJ00_0" to="gneE0" fromLane="0" toLane="0" dir="r" state="M"/>
    <connection from=":gneJ00_1" to="gneE3" fromLane="0" toLane="0" dir="s" state="M"/>
    <connection from=":gneJ00_1" to="gneE3" fromLane="1" toLane="1" dir="s" state="M"/>
    <connection from=":gneJ00_1" to="gneE3" fromLane="2" toLane="2" dir="s" state="M"/>
    <connection from=":gneJ00_4" to="gneE2" fromLane="0" toLane="2" via=":gneJ00_20_0" dir="l" state="m"/>
    <connection from=":gneJ00_20" to="gneE2" fromLane="0" toLane="2" dir="l" state="M"/>
    <connection from=":gneJ00_5" to="gneE1" fromLane="0" toLane="0" dir="r" state="M"/>
    <connection from=":gneJ00_6" to="gneE0" fromLane="0" toLane="0" dir="s" state="M"/>
    <connection from=":gneJ00_6" to="gneE0" fromLane="1" toLane="1" dir="s" state="M"/>
    <connection from=":gneJ00_6" to="gneE0" fromLane="2" toLane="2" dir="s" state="M"/>
    <connection from=":gneJ00_9" to="gneE3" fromLane="0" toLane="2" via=":gneJ00_21_0" dir="l" state="m"/>
    <connection from=":gneJ00_21" to="gneE3" fromLane="0" toLane="2" dir="l" state="M"/>
    <connection from=":gneJ00_10" to="gneE2" fromLane="0" toLane="0" dir="r" state="M"/>
    <connection from=":gneJ00_11" to="gneE1" fromLane="0" toLane="0" dir="s" state="M"/>
    <connection from=":gneJ00_11" to="gneE1" fromLane="1" toLane="1" dir="s" state="M"/>
    <connection from=":gneJ00_11" to="gneE1" fromLane="2" toLane="2" dir="s" state="M"/>
    <connection from=":gneJ00_14" to="gneE0" fromLane="0" toLane="2" via=":gneJ00_22_0" dir="l" state="m"/>
    <connection from=":gneJ00_22" to="gneE0" fromLane="0" toLane="2" dir="l" state="M"/>
    <connection from=":gneJ00_15" to="gneE3" fromLane="0" toLane="0" dir="r" state="M"/>
    <connection from=":gneJ00_16" to="gneE2" fromLane="0" toLane="0" dir="s" state="M"/>
    <connection from=":gneJ00_16" to="gneE2" fromLane="1" toLane="1" dir="s" state="M"/>
    <connection from=":gneJ00_16" to="gneE2" fromLane="2" toLane="2" dir="s" state="M"/>
    <connection from=":gneJ00_19" to="gneE1" fromLane="0" toLane="2" via=":gneJ00_23_0" dir="l" state="m"/>
    <connection from=":gneJ00_23" to="gneE1" fromLane="0" toLane="2" dir="l" state="M"/>

</net>
